*Heading
** Job name: plastic_beam Model name: Model-1
** Generated by: Abaqus/CAE 2018
*Preprint, echo=NO, model=NO, history=NO, contact=NO
**
** PARTS
**
*Part, name=beam
*Node
      1,          50.,           5.
      2,   47.2296562,           5.
      3,   44.4982262,           5.
      4,   41.8051643,           5.
      5,    39.149929,           5.
      6,   36.5319901,           5.
      7,   33.9508209,           5.
      8,   31.4059105,           5.
      9,   28.8967457,           5.
     10,   26.4228249,           5.
     11,    23.983654,           5.
     12,   21.5787449,           5.
     13,   19.2076149,           5.
     14,    16.869791,           5.
     15,   14.5648041,           5.
     16,   12.2921934,           5.
     17,   10.0515051,           5.
     18,    7.8422904,           5.
     19,   5.66410685,           5.
     20,   3.51651835,           5.
** ... 1297 like lines cut
*Element, type=CPS8R
  1,    1,    2,   53,   52,  460,  461,  462,  463
  2,    2,    3,   54,   53,  464,  465,  466,  461
  3,    3,    4,   55,   54,  467,  468,  469,  465
  4,    4,    5,   56,   55,  470,  471,  472,  468
  5,    5,    6,   57,   56,  473,  474,  475,  471
  6,    6,    7,   58,   57,  476,  477,  478,  474
  7,    7,    8,   59,   58,  479,  480,  481,  477
  8,    8,    9,   60,   59,  482,  483,  484,  480
  9,    9,   10,   61,   60,  485,  486,  487,  483
 10,   10,   11,   62,   61,  488,  489,  490,  486
 11,   11,   12,   63,   62,  491,  492,  493,  489
 12,   12,   13,   64,   63,  494,  495,  496,  492
 13,   13,   14,   65,   64,  497,  498,  499,  495
 14,   14,   15,   66,   65,  500,  501,  502,  498
 15,   15,   16,   67,   66,  503,  504,  505,  501
 16,   16,   17,   68,   67,  506,  507,  508,  504
 17,   17,   18,   69,   68,  509,  510,  511,  507
 18,   18,   19,   70,   69,  512,  513,  514,  510
 19,   19,   20,   71,   70,  515,  516,  517,  513
 20,   20,   21,   72,   71,  518,  519,  520,  516
** ... 380 like lines cut
*Nset, nset=_PickedSet2, internal, generate
    1,  1317,     1
*Elset, elset=_PickedSet2, internal, generate
   1,  400,    1
** Section: PlaneStressProperties
*Solid Section, elset=_PickedSet2, material=steel
5.,
*End Part
**  
**
** ASSEMBLY
**
*Assembly, name=Assembly
**  
*Instance, name=beam-1, part=beam
*End Instance
**  
*Nset, nset=_PickedSet4, internal, instance=beam-1
   51,  102,  153,  204,  255,  306,  357,  408,  459,  609,  710,  811,  912, 1013, 1114, 1215
 1316,
*Elset, elset=_PickedSet4, internal, instance=beam-1, generate
  50,  400,   50
*Elset, elset=__PickedSurf5_S4, internal, instance=beam-1, generate
   1,  351,   50
*Surface, type=ELEMENT, name=_PickedSurf5, internal
__PickedSurf5_S4, S4
*End Assembly
*Amplitude, name=Amp-1
             0.,              0.,              1.,              1.,              2.,              0.
** 
** MATERIALS
** 
*Material, name=steel
*Elastic
 2.1083e+11, 0.3
*Plastic
 2.002e+08,      0.
  2.46e+08, 0.02374
  2.94e+08, 0.04784
  3.74e+08, 0.09436
  4.37e+08,  0.1388
   4.8e+08,  0.1814
** ----------------------------------------------------------------
** 
** STEP: Step-1
** 
*Step, name=Step-1, nlgeom=NO
*Static
0.05, 2., 2e-05, 0.2
** 
** BOUNDARY CONDITIONS
** 
** Name: Fixed Type: Symmetry/Antisymmetry/Encastre
*Boundary
_PickedSet4, ENCASTRE
** 
** LOADS
** 
** Name: Load-1   Type: Surface traction
*Dsload, amplitude=Amp-1
_PickedSurf5, TRSHR, 5e+06, 0., -1., 0.
** 
** OUTPUT REQUESTS
** 
*Restart, write, frequency=0
** 
** FIELD OUTPUT: F-Output-1
** 
*Output, field, variable=PRESELECT
** 
** HISTORY OUTPUT: H-Output-1
** 
*Output, history, variable=PRESELECT
*End Step
